/*--------------------------------*- C++ -*----------------------------------*\
| =========                 |                                                 |
| \\      /  F ield         | OpenFOAM: The Open Source CFD Toolbox           |
|  \\    /   O peration     | Version:  v2412                                 |
|   \\  /    A nd           | Website:  www.openfoam.com                      |
|    \\/     M anipulation  |                                                 |
\*---------------------------------------------------------------------------*/
FoamFile
{
    version     2.0;
    format      ascii;
    class       volScalarField;
    object      p_rgh;
}
// * * * * * * * * * * * * * * * * * * * * * * * * * * * * * * * * * * * * * //

dimensions      [1 -1 -2 0 0 0 0];

internalField   uniform 1e5;

boundaryField
{
    grounds
    {
        type		fixedFluxPressure;
	gradient	uniform 0;
        value		$internalField;
    }

    bottom
    {
        type		fixedFluxPressure;
	gradient	uniform 0;
        value		$internalField;
    }

    front
    {
        type		empty;
    }

    back
    {
        type		empty;
    }

    inlet
    {
        type		fixedFluxPressure;
	gradient	uniform 0;
        value		$internalField;
    }

    outlet
    {
        type		fixedValue;
        value		$internalField;
    }

    fluid_to_solid
    {
        type            fixedFluxPressure;
        value           $internalField;
    }

    solid_to_fluid
    {
        type            fixedFluxPressure;
        value           $internalField;
    }

}


// ************************************************************************* //
