/*--------------------------------*- C++ -*----------------------------------*\
| =========                 |                                                 |
| \\      /  F ield         | OpenFOAM: The Open Source CFD Toolbox           |
|  \\    /   O peration     | Version:  2412                                  |
|   \\  /    A nd           | Website:  www.openfoam.com                      |
|    \\/     M anipulation  |                                                 |
\*---------------------------------------------------------------------------*/
FoamFile
{
    version     2.0;
    format      ascii;
    arch        "LSB;label=32;scalar=64";
    class       polyBoundaryMesh;
    location    "constant/solid/polyMesh";
    object      boundary;
}
// * * * * * * * * * * * * * * * * * * * * * * * * * * * * * * * * * * * * * //

4
(
    front
    {
        type            empty;
        inGroups        1(empty);
        nFaces          6000;
        startFace       10496;
    }
    back
    {
        type            empty;
        inGroups        1(empty);
        nFaces          6000;
        startFace       16496;
    }
    defaultFaces
    {
        type            empty;
        inGroups        1(empty);
        nFaces          4;
        startFace       22496;
    }
    solid_to_fluid
    {
        type            mappedWall;
        inGroups        1(wall);
        nFaces          3004;
        startFace       22500;
        sampleMode      nearestPatchFace;
        sampleRegion    fluid;
        samplePatch     fluid_to_solid;
    }
)

// ************************************************************************* //
